Version 4
SHEET 1 880 680
WIRE 160 96 32 96
WIRE 96 176 32 176
WIRE 160 176 96 176
WIRE 96 192 96 176
FLAG 96 192 0
SYMBOL res 144 80 R0
SYMATTR InstName R1
SYMBOL voltage 32 80 R0
SYMATTR InstName U
